          24
 ANGLE   7.2301794892332927        7.6714463540598539        4.4154201182983277        89.999936932615256        90.000051594455101        89.999743455137676       -456.83568736231905     
 O     1.2684414301372744       -3.6564869592426121      -0.94155394231993184     
 H    0.94208139157356241       -2.7583173802322110      -0.99643902744303614     
 H    0.91648443218088582       -4.0877198544695661       -1.7202684610388945     
 O    -3.2539980043793233       -3.6015749129011261       -1.0829236309550045     
 H    -2.9628877214863776       -4.0785919217818503      -0.30578695286518709     
 H    -4.2096672730395017       -3.6208551304232861       -1.0323631508265654     
 O    -2.4241718964944430        2.7313508219359584        1.1247865436884097     
 H    -1.4685025868005224        2.7506271868908443        1.1753477171644153     
 H    -2.7152808653407012        3.2083652643856087        1.9019252893134861     
 O     1.1909085246620330       0.23413929068349273        1.1247664530710775     
 H     2.1465775115274237       0.21486408133459076        1.1753341685448191     
 H    0.89979476245582002      -0.24287133612622097        1.9019057451962076     
 O    -3.3315333124009441       0.17924892509181778        1.2661694325343209     
 H    -3.0051697496010656        1.0774169022373656        1.2112790899698562     
 H    -2.9795752526872672      -0.25199080366707438       0.48745917798354066     
 O    0.36110077545396396       -1.1043710129084150       -1.0829421902604179     
 H   -0.59456810244949088       -1.0850952318190279       -1.0323726335079071     
 H    0.65221628781033691      -0.62735786494779966      -0.30580510123545701     
 O    0.28356752663269236        2.7862542976926568        1.2661558984688821     
 H    0.60993420793012876        1.8880868736679757        1.2112750478945142     
 H    0.63552753503236092        3.2174881380267770       0.48744326377108083     
 O    -2.3466376063781156       -1.0494730761045501      -0.94153800515003094     
 H    -2.6985886245804074      -0.61823608091066118       -1.7202529560547348     
 H    -2.6730084514310697       -1.9476387197597158      -0.99642323136731015     
