          42
 ANGLE   15.130667757048377        4.3219637694973603        6.5718001159745647        89.974756250106793        77.500572782222164        90.100572426047833       -792.13329106191236     
 O    -2.6027288186308803        1.6136477612260602        1.7871546429331027     
 H    -3.1581258272547656       0.86681578592885644        1.5635299495620074     
 H    -3.1864916858377867        2.3705386342951198        1.7364697227385477     
 O    -6.3756191091650667        3.5775722155634258E-002   2.9501097153062861     
 H    -6.2389439694143629       0.79550340665804031        3.5161181883654251     
 H    -6.3135916720980996      -0.71638456591836441        3.5388705649688146     
 O    -1.0941341825155486       0.16422395895301384       -1.6206672282771459     
 H   -0.88977426045895835       0.91460511623403185       -1.0626376761433689     
 H   -0.96662996402835422      -0.59732395581095532       -1.0549647554289006     
 O    -3.6938104473145965       0.78848404747784184       -2.0710477458377659     
 H    -3.7509167679539810        1.0626416139454293       -2.9863664536612222     
 H    -2.7710445124307457       0.56826964934598145       -1.9436095715203543     
 O    -7.4452539402991755       -2.1132856636474258       -1.8618609268388040     
 H    -8.0146026394154166       -2.0800038667903649       -1.0931176531689728     
 H    -6.5802405137593691       -1.8721091798286424       -1.5304736676409427     
 O    -4.9661666218016833       -1.3739691716778433       -1.0396503259484504     
 H    -4.4603360737268067       -2.1290854935101313       -1.3399279260733112     
 H    -4.5678929346095209      -0.62597030507641194       -1.4847431316118684     
 O     1.7536317519137643       -2.0783572443554519        1.1390662246075809     
 H     1.8779586531830290       -1.3202914091361420        1.7101273869133644     
 H     1.8791724241587813       -2.8341891886664041        1.7128165636675194     
 O    -4.2038734841677421      -0.54875194244598458        1.4242036455816696     
 H    -4.5368257438642905      -0.82339903823920246       0.56983627405153392     
 H    -4.9883245397596454      -0.34268095212857741        1.9325373237206960     
 O     3.0962742006789217       -3.6242344191906278E-002  -2.4449135056529752     
 H     3.7221826250971874        4.1215157041196368E-002  -3.1649626843518806     
 H     3.2634956179969681       0.73129404028266021       -1.8979612809588491     
 O     2.0976745320644170        8.2816486597030461E-002   2.7438275636960947     
 H     2.9481993534883779        4.8528183149053793E-002   3.1816216709981444     
 H     1.4606934948778680       0.10142888628236364        3.4580688232454864     
 O   -0.69757961836357540       -2.0127723526874024       -3.0576426547354721E-002
 H    -1.3274327244520348       -2.2387903784514491       0.65384504943103861     
 H    0.15214098347993599       -2.0310241187242721       0.40973438621930430     
 O     6.0239449552651854       -1.9790464847326212       0.27703028371980437     
 H     5.1536515698550920       -2.0600400348536447      -0.11317646679872712     
 H     6.1052317419210436       -2.7462104521938127       0.84367280360722785     
 O     3.5760810312147644       -2.1959173668962024      -0.87339390729278776     
 H     3.3994654337711241       -1.4323538759752350       -1.4229478774105657     
 H     2.9262916397854593       -2.1426570213367611      -0.17255946009657408     
 O     6.2569346235711336       0.18200785936995520        1.8974500719649465     
 H     7.1469778794126126       0.13213815759291783        2.2461158941726409     
 H     6.1803940280900527      -0.58119761659818692        1.3248325917081498     
