          36
 ANGLE   6.6516783386812719        6.4996407127839344        7.0848899140729928        115.03617719464111        90.000000345465423        90.000000228912185       -542.02726718305985     
 O    -3.0897563962868415       -1.5123131096081672        2.5244536678686442     
 H    -3.8487777904687266       -1.6984684987498500        3.0771421282762192     
 H    -3.3894830304023373       -1.6981802306326796        1.6345945789540819     
 O     2.9670066460049198       -1.9831771883989688       -6.2356855681978948E-002
 H     3.5117990806063379       -2.7252266010967992      -0.32464622320545306     
 H     2.3180438125649987       -1.9029742656786006      -0.76138945291957549     
 O     1.4251062316796186       -1.7309209833316905       -2.2522346047932360     
 H     2.1459222456683404       -1.9234919816556726       -2.8518782694657778     
 H     1.2879181910929529      -0.78740839209751967       -2.3370595522000666     
 O    0.23608385032831375      -0.56843989916888293       0.86680799104484940     
 H   -0.52293761268947958      -0.38228433110168936       0.31411968543678925     
 H    -6.3642628403364293E-002 -0.38257292659521513        1.7566671633038129     
 O    -1.9007330876066719        2.6484277687325894      -0.77570414936901555     
 H    -1.1799169687033202        2.8409979439095454      -0.17606034646480384     
 H    -2.0379218947412649        1.7049152535596037      -0.69087959567768342     
 O    -1.8782476265398900       -6.7868466650063186E-002 -0.69818107782309469     
 H    -1.6454624320917213      -0.27114779800056743       -1.6041172823603786     
 H    -2.5747376087657692      -0.68865953008318381      -0.48428390575069569     
 O     1.9627015461369248        1.3870960368641505       0.26937622845186582     
 H     1.4139218911727283       0.63262631206858211       0.48349807382098364     
 H     1.4195408935181546        2.1465131863463647       0.48031209197217700     
 O    -1.3631397989820819       -3.4678413200400597        3.1218789227086705     
 H    -1.9119188242078389       -2.7133711388640265        2.9077570714452583     
 H    -1.9063010771653552       -4.2272580178205184        2.9109430437915562     
 O     1.4475900284017746       0.98537543600939170       -2.3297586451670749     
 H    0.75109990834270213        1.6061662731875477       -2.5436560250849762     
 H     1.6803752942678321        1.1886552341603578       -1.4238225637245865     
 O    -3.2016816476150520        1.1756241964980085        2.4895334553652932     
 H    -3.0443284411519445       0.23307492060954538        2.5449651334736840     
 H    -3.6388196357875988        1.2967934517854425        1.6466454255122487     
 O    0.12415810938891667       -3.2563722680926253       0.90172454692403581     
 H    0.28151171544357018       -2.3138230531252484       0.84629296724261593     
 H   -0.31297982771629540       -3.3775414401722439        1.7446126152231065     
 O   -0.35883320046838701        2.9006848704014567       -2.9655838814438487     
 H    -1.0077961988969395        2.8204813216251656       -2.2665515092075470     
 H    0.18595887233128122        3.6427343543600212       -2.7032939640404745     
