          36
 ANGLE   6.5846217607794708        6.6607810579543756        7.1895483713320338        63.522737153346185        90.000033588219623        90.000310571721869       -609.81408641352186     
 O    -3.1638564004108698       -1.2484500504336253       -1.0117200295883182     
 H    -3.8570237134431560       -1.2889006286954661      -0.35284624284165822     
 H    -2.3625249011227245       -1.4532750130376137      -0.52990429412206341     
 O    -3.0983434447611380        1.4600372731975366      -0.81162983238583741     
 H    -3.1058639792951235       0.52552708833386619       -1.0186708813263590     
 H    -2.1859379343070646        1.6501741611115737      -0.59346478397659552     
 O    -1.0483687141104823       -1.6954616136053411       0.59076222665311084     
 H    -1.2736884018382957      -0.93906887991291155        1.1323643968292776     
 H    -1.2471788354110955       -2.4527100152454895        1.1414719813169225     
 O     1.5830728200098334       -1.2197599055296566       0.96336714819620650     
 H     1.5905888732391895      -0.28524937065251554        1.1704067800242526     
 H    0.67066937375280555       -1.4099001877948969       0.74519642532443042     
 O    0.12845009739912178      -0.11399287600911751       -2.0542946722990734     
 H   -0.56471891566859178       -7.3540764601723416E-002  -2.7131665763938035     
 H    0.92977824392563069        9.0848955280498633E-002  -2.5361088125422859     
 O    0.19397624051847004       -2.8224812608168235       -2.2543670863409657     
 H    0.18644977950496111       -1.8879692158066890       -2.0473346489897417     
 H     1.1063816251079235       -3.0126128571084396       -2.4725372728096335     
 O     2.8254188420091140       -3.2981689978406954       -2.6269505569136444     
 H     3.0242401943094808       -4.0554155064387354       -2.0762422538297600     
 H     3.0507388282404282       -2.5417741891272638       -2.0853514088750873     
 O     2.2439300977570689        3.5384445922378225        2.7786771078812560     
 H     2.0451180358375867        4.2956919651846732        2.2279666393041486     
 H     2.0186061236648025        2.7820508940718551        2.2370780679318862     
 O   -0.46690230313966785        1.9357137522307284      -0.43904696728655840     
 H   -0.26809718013240247        2.6929619230560662      -0.98975884372263601     
 H   -0.24158201655465347        1.1793209010165357      -0.98064872419407723     
 O    -1.7092557229609557        3.0627250272482534        2.4060672490207007     
 H    -1.7017511881307970        2.1282111066344394        2.1990424820579526     
 H    -2.6216545631345127        3.2528774507031195        2.6242466529620203     
 O     1.6485743933723402        1.4887250362674462        1.1634490578338443     
 H    0.84724608839831728        1.6935569707589309       0.68163097363615144     
 H     2.3417447571765169        1.5291753142337505       0.50457846222645686     
 O    -1.6437332522014407       0.35423610539407663        2.2060060272861088     
 H    -2.4450627309518724       0.14940127885779445        2.6878209298404121     
 H   -0.95056525459268304       0.31378755394822744        2.8648792182545968     
