          36
 ANGLE   6.5987151357085025        6.6393441948098157        6.2380745833211870        89.999852974648746        90.000079551807929        90.000243142332124       -546.39825972887274     
 O    -2.4297342671791728       -1.6246584501834223        3.0002396560600317     
 H    -1.6850353030642715       -1.0438004971447734        2.8444855831182836     
 H    -3.1908889160091083       -1.1221799993737156        2.7097386284603777     
 O    -2.2141019636701205       -3.3065923068867660       0.91980805356200823     
 H    -1.2695286743447685       -3.3727403415826251       0.77967390854745511     
 H    -2.3018578962908762       -2.8081465765565321        1.7322627231931333     
 O    0.86962391875088307       -2.7023840145778246       -2.9560029968411481     
 H     1.6143278041968201       -3.2832328088627083       -2.8002382987240155     
 H    0.10847187489650867       -3.2048697168602072       -2.6655076868306611     
 O   -0.50570672909532155       0.17754242062449418        2.4933134182445520     
 H   -0.68226096655310742       0.42149721873022417        1.5847175247270369     
 H   -0.72150098987956657       0.96139160422255054        2.9985313260677424     
 O     1.0852274847572425       -1.0204409247024262      -0.87557451371859185     
 H    0.99747590689071419       -1.5188893767465939       -1.6880279839165517     
 H     2.0298000247345023      -0.95429233692731885      -0.73543557888509747     
 O     2.1801553395265851        1.3062111512726095E-002   2.2434591503186430     
 H     2.2678853635025495       0.51151040941935677        1.4310032578499137     
 H     1.2355861272244042       -5.3104749645193766E-002   2.3836118872000389     
 O     2.3957764821525602        1.6950067231943353       0.16303373922566849     
 H     1.6510568592953743        2.2758357019172073       0.31879708795442313     
 H     3.1569146246834694        2.1975126621469458       0.45353046778203682     
 O    -2.8276198468627283       -1.1848926086916753      -0.62573555195703479     
 H    -2.6118325122676604       -1.9687363002332126      -0.12050616498623401     
 H    -2.6510665024630802       -1.4288618417613235       -1.5343277431499300     
 O   -0.90358503295875403       0.61729167363565174      -0.11879454034548782     
 H    -1.6483075922365180        3.6463976551488586E-002 -0.27454862858295581     
 H   -0.14245098396484612       0.11478300474215342      -0.40929727208655686     
 O     2.7936292955967930        2.1347686851156626       -2.4490751140871265     
 H     2.5778568117678722        1.3509151116209264       -2.9542955120738164     
 H     2.6170791378326581        1.8908070167699231       -1.5404802724930187     
 O    -1.1192204526162759        2.2992326552485838       -2.1992244243093033     
 H    -2.0637895179563062        2.3654043452954729       -2.3393758718187723     
 H    -1.0314919489998364        1.8007877177078113       -1.3867663060698490     
 O    0.47176308676240353       -3.1421552224793770       0.66997070611778420     
 H    0.64830614685898058       -2.8981813369871161        1.5785636463993744     
 H    0.68753646276977853       -2.3583073994696626       0.16474176734911949     
