          42
 ANGLE   6.3725285700739800        8.6733577132057729        6.3660467413481356        69.139432503523480        93.088766130361449        75.601617262930048       -705.07489341948133     
 O     2.1625339693906276        3.6877345598431508      -0.92425425451973964     
 H     2.5334684880649876        3.0142838467233117       -1.4944327878355783     
 H     2.7799221414390898        3.7519759999596780      -0.19560020602593420     
 O    0.30973589106141775        3.3460005798019279        2.8609191950406996     
 H     1.2173441579415831        3.4885214438009888        3.1295581297015995     
 H    -4.4015738292659756E-002   4.2263228784484319        2.7339377978398915     
 O    -2.2450181394713358        1.1175658451645543        2.0185617237785793     
 H    -1.4966880270602194       0.68359769859943076        2.4283244973752027     
 H    -2.9142343043052743        1.1388141155291043        2.7026158705619094     
 O     2.5326308749016042       -1.4853490950303763       -1.9653268279387697     
 H     2.8550271287668321       -2.2835939109185537       -1.5468800458967555     
 H     2.5172548547610178      -0.83547134300318737       -1.2627214440818542     
 O    -2.8774595574336645       -3.7220286545906420      -0.85906293421300950     
 H    -2.5462592939435367       -4.1658922003091856       -1.6397827163667809     
 H    -2.1155599349469947       -3.2670295318061737      -0.50029197173132423     
 O    -1.1136634808440165       0.41117644701085898       -1.0046327390408665     
 H   -0.71752358365583491        1.0187436844915843      -0.37999918743178374     
 H   -0.51957992868615144       0.41732404163001641       -1.7551384219879655     
 O    -1.1753118885664584       -1.9564603921790202       0.37586722320980637     
 H   -0.29918168684119339       -1.9871493152659878       0.76016645509117275     
 H    -1.1853860885248779       -1.1465726283806055      -0.13424272625677719     
 O    -2.7209910038896101       -2.4922799529305681        2.5825622782759665     
 H    -3.6199475103653072       -2.3622158145476817        2.2805815514543233     
 H    -2.1774171318682480       -2.2029547218896228        1.8497251911011929     
 O     1.1873932388264683       -1.7447988201594282        1.6623036794514316     
 H    0.69820591249565500       -1.2163471122405478        2.2929116338533153     
 H     1.6225680366770781       -1.1046788228545448        1.0991863520976408     
 O    0.13914246026274871       -2.5666492523296198       -2.5776564850486747     
 H     3.7551968934062790E-002  -3.2308237073560413       -1.8959061602508414     
 H    0.92024719408462063       -2.0766126614348921       -2.3208075520445921     
 O    0.47415433044701283        2.0725233739039743       0.48202792972791991     
 H    0.93687124624928309        2.7253633159743980       -4.3257617253833813E-002
 H    0.39238260716032791        2.4744849940355538        1.3468817215401092     
 O    -2.3912450049597189        3.6561686229734214        1.0436737009412609     
 H    -2.1647632267327763        2.7619231082861417        1.2991395569628503     
 H    -1.6881433095433949        3.9217942045965857       0.45094872568709965     
 O     2.3523629470542518       0.14942989707314164       0.20366278321054454     
 H     1.6927043762376703       0.83657734542574680       0.29805978618589901     
 H     3.0799876374746180       0.43795603631626479       0.75461361301672958     
 O     3.2182510247267455        1.6639396855004425       -2.3775478114860125     
 H     3.8551591634707618        1.2022275168675112       -1.8322022915283367     
 H     3.6172670810645746        1.6845095530448526       -3.2473724532005432     
