          42
 ANGLE   6.1964009321528479        6.1962695924570825        8.5415453900121499        77.402863832018753        102.60200435933500        102.82927832718457       -705.31478168593731     
 O    -1.6988199586080392      -0.21591528869949159        3.7335986642038077     
 H   -0.74308592649388872      -0.25349923262260937        3.7709047899475978     
 H    -1.9013139434128437       0.71920562621567796        3.7057257273996735     
 O   -0.36907673170709859       -2.0690665415329663        1.4198095918713007     
 H   -0.51521925718435857       -2.6067708556978801        2.1981079104969856     
 H    -1.1057081191674576       -2.2747653911441135       0.84422812737050856     
 O    -1.9648533363520198      -0.84579492688011360       -2.1763800766088219     
 H    -1.0488512136771022      -0.56909849067546892       -2.1516609858752647     
 H    -1.9989026040147551       -1.6141856505285075       -1.6066010113714890     
 O     2.1081530711159080        1.5395477318627830       -3.2083248031773142     
 H     2.9901722367231156        1.7338659563672512       -2.8912846493686897     
 H     1.7609610508281728        2.3870923934228809       -3.4864571236823205     
 O     1.2930431569458025       -2.5777250294448617      -0.66829333630269550     
 H     1.1709324194697404       -1.7214189268734894       -1.0782453658038049     
 H    0.80545919751281647       -2.5220744453822377       0.15353190971809971     
 O     1.1490910186822325        2.4342233002901845        2.4641229687070538     
 H    0.67006829549329794        1.7790037542542552        1.9567213357168480     
 H    0.69377555393481227        2.4661368577363616        3.3054916111064303     
 O    0.62772692073706760      -0.13015317789815412       -1.6369451440239084     
 H    0.49540474242777333       0.30676029129277804      -0.79561922527004814     
 H     1.1602558956889930       0.48238597125052785       -2.1443311130818437     
 O    0.96140596236749498      -0.55128310433902228        4.0258719550154423     
 H     1.5110694145649739      -0.59472617870690903        3.2434305012262050     
 H     1.4668204465390056       -2.4865448320028904E-002   4.6452849760451222     
 O   -0.15030068992323042       0.62015997988763505       0.89278722231895868     
 H   -0.14390688471192870      -0.28299396778937203        1.2098107325675800     
 H    -1.0537886279584092       0.77049290255837644       0.61468400733176465     
 O     2.6471043929414169      -0.92060546550083844        1.9247237172504896     
 H     2.5806919979912686       -1.8751820347545380        1.9493165460593556     
 H     3.3887015759534220      -0.71687182355683754        2.4945991960078153     
 O    -2.2413313735986256       -2.8066707868287200      -0.36768428389878399     
 H    -3.1980775439295357       -2.8167938085372679      -0.39536333714533078     
 H    -1.9925421492297817       -3.7302145125740300      -0.33023100000510441     
 O    -2.6996930237191603       0.71555644006231589       -7.5177660447571321E-002
 H    -2.5351678684022168       0.18928889781736896      -0.85761346436211505     
 H    -3.1007286159300462       0.10581973755388807       0.54419577084748549     
 O    -1.5147193333045357        2.3500428001376479       -2.6813085577714162     
 H    -1.4776868703884101        3.1140140174153519       -3.2568156523076945     
 H    -1.0229679301261461        2.6118722378072197       -1.9029399156475701     
 O    -2.5130696474418022        2.3288117836620086        3.4326299416355210     
 H    -3.3751280338399745        2.2578001315601148        3.0226976012348903     
 H    -2.6755695245049571        2.7917238608551469        4.2545411526207424     
