          36
 ANGLE   7.6563201427384699        11.102271439353965        4.3453106978439902        80.275279929327951        89.999548869339392        89.999075110824663       -678.68203032215717     
 O    -9.1788545805123384E-002  0.38643903010872477        1.6125400647822175     
 H     6.7579397742973057E-002 -0.48032730536588752        1.9861037384138516     
 H    -1.0248223946737745       0.38780117151366217        1.3988163612859894     
 O    -2.7518695737634937       0.29184113557202845       0.98629293698768628     
 H    -3.1163289060670381       0.62265519611235409       0.16534026329347384     
 H    -3.2094653856756152       0.78430409688473368        1.6677018778268908     
 O    -3.5008751196732830        4.2561778514427822        1.8389657688914285     
 H    -3.9398122807972160        4.4765525585566026        1.0173813258492297     
 H    -2.5848268653244659        4.4919965695884470        1.6924155458393282     
 O     3.7363787827108101        1.0637791546714468       -1.3499591436127387     
 H     2.8033367843737804        1.0624094070163153       -1.1362710692365514     
 H     3.8957435663611224        1.9305291507250324       -1.7235620746413884     
 O     2.9031817511174820       -3.5440387488749714       -1.1683852591506316     
 H     2.9144181777819793       -4.4663940444627492      -0.91271693608929372     
 H     3.3677979366719262       -3.0937857087403318      -0.46295217233774832     
 O   -0.89928504605894310       -3.4826022360637787       0.75136250275353966     
 H    -1.7841015368683240       -3.1178468461057882       0.76824809093894397     
 H   -0.43312296005458956       -3.0136140574777408        1.4434425833212585     
 O    0.32715309280791172       -2.8059833427838696       -1.5764334690577635     
 H   -0.11178040492365965       -3.0263491517341836      -0.75484468212429867     
 H     1.2432039078945705       -3.0417908225701789       -1.4298811689874573     
 O    0.46449690011513767        3.8043593908678264      -0.57775485524521897     
 H    -1.9172125584906718E-002   3.9813944939500785       -1.3845724838670939     
 H    0.65314978914226918        2.8665557821717789      -0.61190626778388846     
 O     1.0762778310933783        1.1583552064640068      -0.72373220405581273     
 H    0.71182677968788965       0.82755654105946552        9.7230349350862388E-002
 H    0.61865998585136950       0.66589449026289782       -1.4051279706369910     
 O     2.9290012369153184        4.9328177117083740      -0.48881019483146132     
 H     2.0441765577517312        4.5680821438389785      -0.50569488239281735     
 H     3.3951498677125818        4.4638247829450632       -1.1808961192482550     
 O    -3.3637827419735808       -2.3541305246123394       0.84029665602787496     
 H    -3.8474364022958034       -2.5311742218443465        1.6471216098606982     
 H    -3.1750986663911447       -1.4163340359324033       0.87447128757209991     
 O   -0.92483906659299875        4.9942612871856715        1.4309469956668557     
 H   -0.91357182624124289        5.9166196005381275        1.1752909159729286     
 H   -0.46023108571463089        4.5440030791287702       0.72551180361763956     
