          42
 ANGLE   4.3493661046002909        8.2150005246053723        12.482025935202550        83.509092264480387        98.382146275631243        78.902226310005233       -792.29904476136028     
 O     1.5962590103634706        3.8153321606332469        3.3152879382817391     
 H    0.82580946929943755        3.3522857615744948        2.9863086425913514     
 H     1.5921300031530199        4.6505258990177012        2.8476703480834491     
 O   -0.49859959892304812       -3.6873050472248057       -2.6418449008859501     
 H   -0.49550523076141501       -3.8600366628963356       -3.5833256780838614     
 H   -0.56146507160924186       -4.5534008042074596       -2.2391565448578858     
 O     1.4342958630120552        4.3977225462703498        5.9701381130896349     
 H     1.4861695889011088        3.5457843450410289        6.4034304599508909     
 H     1.4811983114065048        4.1950278855721299        5.0358218524695815     
 O    -9.8329116656818115E-003  -1.8343603161944901        2.0554279351718265     
 H   -0.75858263925604463       -1.6856990766031983        1.4779285661015757     
 H    0.75216305833488706       -1.6003689071590745        1.5254826529015597     
 O    -1.2643101462714810        1.3632012286449413        5.5584946219882872E-002
 H    -1.0505683598396334        1.7857539887346037       0.88744758732929718     
 H   -0.50703146601594296        1.5370721373597589      -0.50345865452438276     
 O    -2.5754517584656149       -1.2267839018822668E-002   5.4859538666827357     
 H    -2.4781442480098721      -0.82757156829723977        5.9779324408438574     
 H    -1.8020444087680116        2.2104691347888339E-002   4.9230227513676210     
 O     1.6797059553019926       -2.2339649136596282       -1.9149113785579071     
 H    0.92366443907516871       -2.7815583342577086       -2.1265112638582977     
 H     2.4362513485696313       -2.7551125943157726       -2.1837533449103255     
 O    0.91301779374542158        1.9232008486842151       -1.4840494643729980     
 H     1.6680554173120314        1.8004259025694100      -0.90865712900052154     
 H     1.0217247378616245        1.2615120742925618       -2.1671179866641284     
 O     1.2402093515181802        8.0887927523798295E-003  -3.3715300714562355     
 H     1.3874410517463405      -0.80130358224216935       -2.8822053840056552     
 H     2.0114402209725775        9.3332203132136915E-002  -3.9320372944136581     
 O   -0.50865289842421690       -4.1145955455543985       -5.3358889996576657     
 H    0.25058604596788847       -4.5942130030842714       -5.6671821625073404     
 H    -1.2632311861599845       -4.6074157893974110       -5.6583353594390564     
 O   -0.93616221889876561       0.22871885826022734       -4.9633226587320465     
 H   -0.16357841549700158       0.13766559110216564       -4.4055992422780603     
 H   -0.86830690193003413      -0.49405707227460860       -5.5871996098999634     
 O   -0.57976141484913324        2.4402433968215891        2.4569764394216933     
 H    -1.3465027761297221        2.9098631949520914        2.7853006238879843     
 H   -0.53878917564792994        1.6457971879826241        2.9893375357428225     
 O   -0.39848570974012748       0.13528803168337061        3.8814038912620705     
 H    0.36779231217711672        8.8532996590085400E-002   4.4531239274861134     
 H   -0.27137652160586750      -0.57391732767967929        3.2512429177461151     
 O    -2.1715102904188628       -1.1809209838218881       0.54837165373421715     
 H    -2.3354886174790885       -1.5745539601842764      -0.30859744032613284     
 H    -1.8874759509333978      -0.28817301139938900       0.35201129182639218     
