          30
 ANGLE   4.5450327698088913        6.0496831423845441        8.7493660082282876        95.594989986738369        74.947636679416448        112.06259231423834       -451.14482657170657     
 O   -0.74133824850173147        2.7311112482857607        2.2960523877046222     
 H    -1.3272187202514858        2.2022174147522704        1.7545293266328579     
 H    -1.3272223283822151        3.2599592804405240        2.8376162748210296     
 O    -1.8775090411181332       -7.2510351894275363E-002  -1.9285055214983160     
 H    -2.4634041799713327      -0.60134600877973321       -1.3869415139473005     
 H    -2.4633784553230971       0.45634254881470560       -2.4700805199157365     
 O   -0.29664219508174294       -1.2444149758864100        3.5298454260802785     
 H   -0.69784692100376633       -1.2017587831440355        2.6618321444315707     
 H    -1.0289235745597702       -1.4046916392971736        4.1250825321444671     
 O    0.83992301118377233        1.5586871606785946       -3.1623475239390988     
 H    0.43869737321806473        1.6014158208841933       -2.2943474726510558     
 H    0.10767607886505948        1.3982063017764264       -3.7575719891922135     
 O    -1.2321476147989383       -1.2342271511944074        1.0304894676381280     
 H    -1.7003010909576424      -0.40296318534736675       0.95261532658494452     
 H    -1.9037562848385019       -1.8643631274303210        1.2914536141810973     
 O    -9.5739080165719512E-002   1.5689997043826125      -0.66302758087360913     
 H   -0.76729908369392064       0.93881558219283068      -0.92400070937747691     
 H   -0.56396484957546522        2.4002179832621917      -0.58510042439320331     
 O    -9.5719484044176184E-002  -1.7139621474292848       -3.1940600925637526     
 H   -0.56393911471772273       -2.5451854683716411       -3.2719703497414070     
 H   -0.76729183183546412       -1.0837696820528020       -2.9331388817264425     
 O     1.0403447128598726        1.0896238959196034        3.5616345883442300     
 H    0.36879037966664219        1.7198067037110065        3.3006436951438372     
 H    0.57215357115772969       0.25836826836833493        3.6393711723699651     
 O     1.9760506826043465        1.0998971162494675        1.0623080559189484     
 H     1.2438011322174760        1.2601420584794643       0.46702325479604823     
 H     1.5747971396286906        1.0572686922610794        1.9303001363653942     
 O    0.83974237932324980       -1.7035853623275448      -0.69467367601008989     
 H    0.43855710105042944       -1.7462756249373395       -1.5626942713737404     
 H    0.10744900014999814       -1.5432750636274841       -9.9460390750329086E-002
