          12
 ANGLE   4.4019406305620254        6.3088896074254714        4.4020469158395041        89.999225816132295        90.007744908171588        90.000374293157634       -228.41583913647423     
 O   -0.67958974052217780      -0.53902496731648752       -1.8495373478829762     
 H   -0.62707316961416870       -1.0970477188618162       -1.0735963330256326     
 H     9.6308512841386751E-002   1.9033385235839972E-002  -1.7967678910546947     
 O     1.6642099635271863        2.6154530850685331       0.49504531415961289     
 H     1.6117252617130537        2.0574069743825705      -0.28088105762043669     
 H    0.88828683286264165        3.1734748016385699       0.44225422460881092     
 O     1.5213825546587305        1.0382249854162391       -1.7059892075727199     
 H     2.2972951013657674       0.48018031998790478       -1.7586932040964987     
 H     1.5739813983020812        1.5962832060491081       -2.4818991405104662     
 O   -0.53672972120669182       -2.1161927674166434       0.35152753595630987     
 H   -0.58937841562131632       -1.5581243379696290        1.1274267452811924     
 H    -1.3126256429453300       -2.6742626720699190       0.40420903317908224     
