          36
 ANGLE   7.4173902246270460        5.8304700845611714        6.3027401037636119        92.384144687361967        91.666908169180857        106.06246408495464       -544.55746923836011     
 O    -2.9103423974501004      -0.12276477244706738      -0.97253411969396075     
 H    -2.9252183905359841       0.80898588912478930      -0.75378483514629391     
 H    -3.7517540646904224      -0.28236739816857725       -1.4000680342488891     
 O    -1.6960477569407968        2.4678652083460704       -3.0727295471896934     
 H    -1.2652112079330073        2.0942611346665738       -2.3039436835259917     
 H   -0.98572233654835717        2.6184707533016160       -3.6964182571828652     
 O    -3.2966848138083069        2.4621373345023949      -0.25357048781642383     
 H    -4.0365861519210764        2.5263756401008362      -0.85743412304607802     
 H    -3.6839271273329230        2.1645386823893356       0.56966111560790567     
 O   -0.22998658486976470        1.4269346214500758       -1.0501045372391828     
 H   -0.18953055116445641       0.48816174357423670      -0.86761992665092047     
 H    0.63070851763972080        1.6384490979291411       -1.4116255003325735     
 O    -4.1490863374714424        1.3183998670042747        2.0459720435416688     
 H    -3.3076880554715720        1.4780331295705502        2.4735208624268488     
 H    -4.1341841292941606       0.38664367758138474        1.8272480904327870     
 O     2.2373502946880470      -0.94660283446950111       -2.1455027286427026     
 H     1.8065204973463869      -0.57299422770777531       -2.9142901730485713     
 H     1.5270203394909920       -1.0972055058310288       -1.5218184895212370     
 O    0.15827008596770326        2.3638377553224901        1.4560930806195675     
 H    0.81882970472351924        3.0545431722167837        1.4030001701507449     
 H    -4.4257537750655496E-002   2.1548500509611737       0.54420572954116730     
 O     3.6546731713108986       -1.2665025461266728        1.3270178766638323     
 H     4.0419217945855186      -0.96890591107482160       0.50378851216222098     
 H     4.3945720812910549       -1.3307539968874671        1.9308830885160380     
 O     2.0858210691886474        2.3772185629848215       -2.0286302854497187     
 H     2.4593013729044184        2.1116006434084009       -2.8689822495315962     
 H     1.6138452942665431        3.1874146969633892       -2.2211216680434913     
 O    0.58796821594891568      -0.23130065850018575        2.1235137498054213     
 H   -0.27273687820870240      -0.44277152895514926        2.4850364349029754     
 H    0.54756110882592346       0.70747525526204913        1.9410339168544020     
 O    -1.5444955588898122      -0.85593177047344904       -3.1895833888127978     
 H    -1.9179810665620876      -0.59030327543643646       -2.3492370803285194     
 H    -1.0725402332998060       -1.6661378076963826       -2.9970835501252262     
 O    0.19970011222779760       -1.1681971952313910      -0.38267785662492104     
 H    0.40223244600756214      -0.95920469578143985       0.52920734938918246     
 H   -0.46085491405053947       -1.8589064636044519      -0.32957791461011204     
