          30
 ANGLE   6.0386852470203056        6.0810902402771108        5.6429542024354271        90.000201401025791        89.845548726202665        90.000186192782365       -499.89413927771193     
 O    0.70915748902788467        1.3674116343818303        1.0571558901556455     
 H    0.28635043749243294        1.3685879943478030        1.9159135121591582     
 H    0.28578439905202468       0.65229241280360239       0.58219108555046040     
 O    0.37645556389170004       -1.6731510705872488        2.6254851920500157     
 H    0.79926256194723000       -1.6719655221969001        1.7667275563516283     
 H    0.79983062674618988       -2.3882735865062399        3.1004432779677620     
 O    -2.3257994984407575       -1.8082885254837413        2.4899953688257641     
 H    -1.3732672831050110       -1.7288434549849974        2.5410120280757025     
 H    -2.6559728802436884       -1.0680384429721010        2.9991585973589383     
 O    -1.0913753716337942        2.9664885864079480      -0.29562213451067304     
 H    -1.0001038232082542        3.9187692445881162      -0.26302010230484563     
 H   -0.33260044023522006        2.6360708800230106       0.18533169153545198     
 O     1.9478738143133849       -1.8135553136933200       0.41400171832527005     
 H     2.6971484940160080       -1.7747181089225705        1.0084013867993755     
 H     2.0795485742697308       -1.0797837418196639      -0.18639221727077021     
 O     2.1617719448772905       -7.4061723548989822E-002  -1.6646617814288152     
 H     2.0704948522284665       0.87821810197803429       -1.6972726117126047     
 H     1.4030023036465769      -0.40448815348844397       -2.1456179602477188     
 O     2.0030857030306706        2.6339124432097325       -1.7538776340277256     
 H     1.9943956693088969        3.0821726798489717      -0.90817137085945077     
 H     2.6980158941895001        3.0681955454289227       -2.2485513209596553     
 O   -0.93269087996458921      -0.40662573288590687      -0.20642940956823042     
 H   -0.92400109822851184        4.1637894802526554E-002  -1.0521338779169465     
 H    -1.6276242194205450        2.7652121513385475E-002  0.28824446167517759     
 O    -2.6272660717987408        1.2322639629542829        1.1926391672697325     
 H    -2.2970913922710086        1.9725179975600271       0.68348252609859317     
 H    -3.5797981383969928        1.3117129239322070        1.1416257895968953     
 O   -0.87747362981421173        1.2270103622730952       -2.3743024754486668     
 H    -1.0091520991932614        1.9607750471095060       -1.7739009364858545     
 H    -1.6267484529469258        1.2658499992644767       -2.9687018041981341     
