          24
 ANGLE   4.3429455491235434        5.7735518232938174        7.0687269434203879        89.998988266949894        89.999633941336512        109.13142885960026       -360.89649263571243     
 O    -1.4169934410088012      -0.41779545821174685       -1.0095709817109773     
 H    -1.9311535166607414       -9.9913152472677069E-003  -1.7063973859083195     
 H    -2.0607924890636435      -0.64830932446668343      -0.33978147508379841     
 O    -2.3630784122546311        2.3095954227502107        1.4496056131148303     
 H    -2.8772419584316906        2.7173866976107126        2.1464369872149618     
 H    -3.0068786288438676        2.0790621749713796       0.77982390032461368     
 O   -0.49074213926577259       0.59449360224595704        2.5176894919107973     
 H    -1.0310971516305663      -0.11219408033015976        2.8710176961451053     
 H    -1.1185236799256264        1.2117788775884888        2.1420818960716890     
 O     1.4110811086963742        1.1243894006224000       -2.6663168731268274     
 H    0.76310231585005939       0.97306940596549241       -3.3543994141336935     
 H    0.89255020644256566        1.3466132240331115       -1.8930290122906599     
 O     8.7302627161066348E-002   1.7705074508930654      -0.45734031167195560     
 H   -0.44334579721578610       0.97448770188530909      -0.48891005820233480     
 H   -0.44343065258283970        2.4305750314899197      -0.90328292548823108     
 O    0.45531545317240657       -2.1329365845263455       -2.0776293225764237     
 H    -8.5049029008075039E-002  -2.8396109547438289       -2.4309696696577374     
 H   -0.17245927284013290       -1.5156362685033891       -1.7020350558232709     
 O     1.0333978466411724      -0.95678395838166774       0.89738833073209556     
 H    0.50275039310009384       -1.7528023689324530       0.92900810483897112     
 H    0.50268539204143381      -0.29670165282579564        1.3433339332720964     
 O     2.3572239325154434       -1.6028410726952622        3.1063584534187361     
 H     1.7092531318479778       -1.7541159993186688        3.7944584302080440     
 H     1.8386854946012172       -1.3806333498619157        2.3330710189425945     
