          18
 ANGLE   5.9653369564574179        6.2311464500121039        6.2312923011701589        60.006525233187155        89.999313044673357        90.000284856637833       -337.56248549521689     
 O    0.26876838776869433       -1.6213225911794817       0.94016458643322420     
 H    -6.5415495011737879E-002 -0.82184883070975945        1.3468520325268987     
 H    0.97065145198014879       -1.9115926798263922        1.5226895041921591     
 O   -0.69058978931271431       0.56215730563071553        2.2474558952705057     
 H    -1.3982713279461780       0.26001490175127917        2.8167788683317800     
 H    -1.0646883417619704        1.3045239038859615        1.7729309255899786     
 O     1.2978491272132213       -1.5763925017706955       -1.5781660238121515     
 H    0.92379928760777541       -1.5367900472124350      -0.69796706727783442     
 H    0.59015977150194066       -1.9183334902890661       -2.1245028944185860     
 O    -2.6790765238002221       -3.4254280897938645       -1.5180178309722470     
 H    -3.0531579746401407       -4.2074705989590608       -1.9238557567457080     
 H    -3.3867222058388742       -2.7812687605439446       -1.5410001553182318     
 O    -1.7196806826778308        2.7652237315205124        1.0265942194218320     
 H    -1.0178110352513148        3.4148528413181891       0.98668359771712755     
 H    -2.0538599727148612        2.7176370550947211       0.13088692887592301     
 O     2.2571599244119800        3.7623031353678273        2.5807840179209678     
 H     2.9590464876904821        3.4028762524288312        2.0381981647052299     
 H     1.9230630490098146        3.0104622255862319        3.0700143974205374     
