          36
 ANGLE   6.4472376877599817        6.4667901029674626        6.3387970576083887        89.998331778979690        89.997940173755964        89.362713297446675       -542.06181963504730     
 O    0.24360068381296202        1.2951940515729672       0.44454579160051882     
 H    0.36773696048309223        1.0420877334908787      -0.47019964651951091     
 H    -5.7548004478712583E-002  0.49560185501452048       0.87604738689657546     
 O     2.8444907475153194        1.4150861883666448        1.1420459534704308     
 H     1.9066184704282261        1.4599077247101173       0.95598558221614949     
 H     3.1904945713149271       0.80930814441627019       0.48664824567484510     
 O    0.72537747911572070       0.65975618242026290       -2.1485484105736097     
 H     6.1760197919973003E-002   1.2744323762612546       -2.4616252714616591     
 H     1.5405205124242234        1.1614440439110592       -2.1576569165655188     
 O   -0.51976432563561281      -0.93727339338058591        1.7829325743293083     
 H    0.27089738028949034       -1.2902525339640163        2.1909664370130177     
 H   -0.93640079705914858       -1.6947576264056505        1.3720024982845209     
 O    -2.8090537826354796      -0.29645236471033493        3.0718249173832399     
 H    -1.9591211042685701      -0.52394035117704563        2.6948693520212554     
 H    -3.1428167274584835       0.40111578888415561        2.5077036469512084     
 O    -1.0902653020953210        2.5526568939500716       -2.7247081232927850     
 H    -1.2143428737489264        2.8056900217469516       -3.6394817742304753     
 H   -0.78900600006829413        3.3522470908409558       -2.2932800412464434     
 O     2.7560676771514756        2.4326122696084616       -2.0274540138511603     
 H     2.4101223822444244        3.0384676268991484       -2.6828111523442475     
 H     3.6939815298995260        2.3879320655655620       -2.2133387205647383     
 O    -1.5720923258501949        3.1880108987755897        1.0209576155614299     
 H    -2.3871686450930580        2.6862097481735669        1.0121236434089009     
 H   -0.90848773073241829        2.5734142489063325       0.70769775648584188     
 O     1.7622828765571608       -2.1741990297019700        2.5956001354617215     
 H     2.4097635770774262       -1.4932858723634297        2.7782414632521388     
 H     1.8602898359691267       -2.3539500533459896        1.6605514493465288     
 O    -2.6806975993839366      -0.44430776303528813      -0.57375066210766634     
 H    -3.3281458132677075       -1.1252417876350538      -0.39107197018909473     
 H    -2.7787265566773085      -0.26459886930732257       -1.5088051402248746     
 O     1.8906945250999581       -2.3221392098777716       -9.7615586747668404E-002
 H     1.0407416240966774       -2.0946267733095052      -0.47451079404391144     
 H     2.2243978054563724       -3.0197162461769107      -0.66176117000386780     
 O   -0.39867460284508027       -1.6813174284824119       -1.3863679548991361     
 H    -1.1893462211301609       -1.3283237960618188      -0.97836583785932651     
 H     1.7921045100752542E-002 -0.92386512946536470       -1.7973982710880774     
