          36
 ANGLE   6.7140134176162309        6.5530164680744489        7.1419434597250264        115.36911822295299        90.000011341375497        89.999997984969696       -609.62089796371049     
 O    -3.1317540569647235       -1.5272724397266189        2.5304470392884597     
 H    -3.8892311023700685       -1.7255476767814191        3.0810351757887400     
 H    -3.4279471556092385       -1.7120806385800258        1.6391853392519780     
 O     3.0241127471258058       -1.9857262663380950       -7.9425870153123343E-002
 H     3.5650807681157861       -2.7310062896302840      -0.34046825588344598     
 H     2.3681331704520940       -1.9108978069064793      -0.77247950202158777     
 O     1.4522621248052077       -1.7316827522941594       -2.2655857375575139     
 H     2.1688897211826212       -1.9240308152924472       -2.8702996788315156     
 H     1.3180133538009873      -0.78729345415262020       -2.3451970498164334     
 O    0.22525276219233059      -0.59015483026418369       0.87878598877645142     
 H   -0.53222503991802406      -0.39187948715758503       0.32819893151300017     
 H    -7.0939189428834815E-002 -0.40534703753257151        1.7700481542140483     
 O    -1.9047424518304346        2.6742241983210446      -0.77839605877211171     
 H    -1.1881151235710758        2.8665708965879464      -0.17368136566661541     
 H    -2.0389931899472495        1.7298351759064530      -0.69878479287398332     
 O    -1.8816256212641775       -5.4011029161497366E-002 -0.70561582308443338     
 H    -1.6582571479527262      -0.24886759861118474       -1.6157637684607937     
 H    -2.5779398274348164      -0.67482043802164382      -0.49120023560146064     
 O     1.9462405099110103        1.3841808161013043       0.28373027084499997     
 H     1.3983491890734423       0.62837319223262733       0.49539457169152806     
 H     1.4019828405821437        2.1422689982001950       0.49660990241812331     
 O    -1.4107665338104809       -3.5016132775109052        3.1254926177550129     
 H    -1.9586601219725894       -2.7458076993632701        2.9138268810573420     
 H    -1.9550215308147838       -4.2597034949520785        2.9126134021048222     
 O     1.4753724305668832       0.99654361860612983       -2.3383759866070180     
 H    0.77905788232973605        1.6173525868189844       -2.5527917390595558     
 H     1.6987400448356005        1.1913998272669086       -1.4282277531624610     
 O    -3.2406423434189424        1.1706122442233919        2.4907779425865630     
 H    -3.0872219886266050       0.22753223373430975        2.5481724418988292     
 H    -3.6885414970602102        1.2903639287573554        1.6533546791058344     
 O    0.11637582077457320       -3.2880449387771673       0.91845732070348873     
 H    0.26979498893076853       -2.3449646828100441       0.86106368301387537     
 H   -0.33152249687783214       -3.4077980419360285        1.7558808284508935     
 O   -0.33289909293837139        2.9282671652775383       -2.9645595707060997     
 H   -0.98887890829952618        2.8534406761993658       -2.2715059520221055     
 H    0.20806963539810758        3.6735471184325945       -2.7035184505981569     
